*
*******************************************
*
*BAT46WJ
*
*NXP Semiconductors
*
*Single Schottky barrier diode
*
*
*
*
*IFSM = 2,5A  @ tp = 10ms
*VF   = 850mV @ IF = 250mA
*
*
*
*
*
*
*
*
*
*
*Package pinning does not match Spice model pinning.
*Package: SOD323F
*
*Package Pin 1: Cathode         
*Package Pin 2: Anode
*       
*
*
*
*Simulator: SPICE2
*
*******************************************
*#
.SUBCKT BAT46WJ 1 2
*
*The resistor R1 does not  reflect a 
*physical device but improves 
*only modeling in the reverse 
*mode of operation.
* 
  R1 1 2 5E+007   
  D1 1 2  
 + DIODE 
*
.MODEL DIODE D  
 + IS = 1.703E-007       
 + N = 1.06      
 + BV = 115      
 + IBV = 1.055E-006      
 + RS = 1.3      
 + CJO = 3.498E-011      
 + VJ = 0.4      
 + M = 0.5       
 + FC = 0.5      
 + TT = 0
 + EG = 0.69     
 + XTI = 2       
 .ENDS   
*

