******
* Spice Model
* Item: CMDSH05-4
* Date: 3/11/08
* Revsion History: REV A
*==========================================================
* This model was developed by: 
* Central Semiconductor Corp.
* 145 Adams Avenue
* Hauppauge, NY 11788
*
* These models are subject to change without notice.
* Users may not directly or indirectly re-sell or 
* re-distribute this model. This model may not 
* be modified, or altered without the consent of Central Semiconductor Corp. 
*
* For more information on this model contact
* Central Semiconductor Corp. at:
* (631) 435-1110 or Engineering@centralsemi.com
* http://www.centralsemi.com
**==========================================================
******
*SRC=CMDSH05-4;CMDSH05-4;Diodes;Si;  40.0V  0.500A  3.00ns   Central Semi Central Semi
.MODEL CMDSH05-4 D  ( IS=1.21u RS=0.274 BV=40.0 IBV=100u
+ CJO=39.8p  M=0.333 N=0.967 TT=4.32p )
******