**************************************
*      Model Generated by MODPEX     *
*Copyright(c) Symmetry Design Systems*
*         All Rights Reserved        *
*    UNPUBLISHED LICENSED SOFTWARE   *
*   Contains Proprietary Information *
*      Which is The Property of      *
*     SYMMETRY OR ITS LICENSORS      *
*Commercial Use or Resale Restricted *
*   by Symmetry License Agreement    *
**************************************
* Model generated on Sep  1, 16
* MODEL FORMAT: PSpice
*$
.MODEL NSR02100HT d
+IS=5e-09 RS=1 N=1.23272 EG=0.802397
+XTI=0.5 BV=160 IBV=0.0001 CJO=6.5525e-12
+VJ=0.4 M=0.308673 FC=0.5 TT=2.59685e-09
+KF=0 AF=1
*$
