**************************************
*      Model Generated by MODPEX     *
*Copyright(c) Symmetry Design Systems*
*         All Rights Reserved        *
*    UNPUBLISHED LICENSED SOFTWARE   *
*   Contains Proprietary Information *
*      Which is The Property of      *
*     SYMMETRY OR ITS LICENSORS      *
*Commercial Use or Resale Restricted *
*   by Symmetry License Agreement    *
**************************************
* Model generated on Oct 15, 01
* MODEL FORMAT: PSpice
.MODEL Dss16 d
+IS=0.000119367 RS=0.0658135 N=1.73244 EG=0.64331
+XTI=0.5 BV=60 IBV=2e-08 CJO=2.05074e-10
+VJ=0.4 M=0.421584 FC=0.5 TT=0
+KF=0 AF=1

